iidm/iidm-xml-converter/src/test/resources/batterie-CONTROL.xiidm
<?xml version="1.0" encoding="UTF-8"?>
<iidm:network xmlns:iidm="http://www.itesla_project.eu/schema/iidm/1_0" id="fictitious" caseDate="2017-06-25T17:43:00.000+01:00" forecastDistance="0" sourceFormat="test">
    <iidm:substation id="P1">
        <iidm:voltageLevel id="VLGEN">
            <iidm:generator id="GEN" voltageRegulatorOn="true" targetP="607.0" targetV="24.5" targetQ="301.0"></iidm:generator>
        </iidm:voltageLevel>
    </iidm:substation>
</iidm:network>
